*NODE
1, 0.0, 0.0
2, 0.0, 3.0
*ELEMENT, TYPE=BEAM2D, ELSET=BEAM
1, 1, 2
*NSET, NSET=BASE
1
*MATERIAL, NAME=STEEL
*ELASTIC
210e9, 0.3
*SECTION, ELSET=BEAM, MATERIAL=STEEL, A=0.02, I=6e-4
*MASS, NSET=2
1.0
*STEP, NAME=STATIC, NLGEOM=NO
*BOUNDARY
1, 1, 3
*CLOAD
2, 2, -10000
*STATIC
0.0, 1.0, 1e-10, 60
*END STEP
