*Part, name=JOB1
*Node
1, 0.0, 0.0
2, 0.0, 3.0
3, 2.5, 3.0
4, 5.0, 3.0
5, 5.0, 0.0
6, 2.5, 0.0
*Element, type=B21, elset=EALL
1, 1, 2
2, 2, 3
3, 3, 4
4, 4, 5
5, 5, 6
*Elset, elset=EALL, generate
1, 5, 1
*Nset, nset=BASE
1, 5
*Beam Section, elset=EALL, material=STEEL, section=RECT
0.30, 0.50
*Material, name=STEEL
*Elastic
2.0e11, 0.3
*Density
7850.
*Assembly
*Instance, name=JOB1-1, part=JOB1
0.0, 0.0
*End Instance
*End Assembly
*Step, name=STATIC, nlgeom=YES
*Static
*Dload
EALL, GRAV, 9.81, 0.0, -1.0, 0.0
*Boundary
BASE, 1, 3
*End Step
