*NODE
1, 0.0, 0.0
2, 4.0, 0.0
3, 0.0, 3.0
4, 4.0, 3.0
*ELEMENT, TYPE=BEAM2D, ELSET=FRAME
1, 1, 3
2, 2, 4
3, 3, 4
*NSET, NSET=BASE
1, 2
*MATERIAL, NAME=STEEL
*ELASTIC
210e9, 0.3
*SECTION, ELSET=FRAME, MATERIAL=STEEL, A=0.02, I=4e-4
*STEP, NAME=STATIC, NLGEOM=YES
*BOUNDARY
1, 1, 3
2, 1, 3
*CLOAD
3, 2, -50000
4, 2, -50000
*STATIC
0.0, 1.0, 1e-10, 60
*END STEP
