*NODE
1, 0.0, 0.0
2, 1.0, 0.0
3, 0.0, 3.0
4, 1.0, 3.0
*ELEMENT, TYPE=BEAM2D, ELSET=FRAME
1, 1, 3
2, 2, 4
3, 3, 4
*MATERIAL, NAME=STEEL
*ELASTIC
210e9, 0.3
*SECTION, ELSET=FRAME, MATERIAL=STEEL, A=0.02, I=4e-4
*MASS, NSET=3
1.0
*MASS, NSET=4
1.0
*STEP, NAME=DYNAMIC, NLGEOM=NO
*BOUNDARY
1, 1, 3
2, 1, 3
*HHT, ALPHA=0.0
0.0, 0.02, 0.01
*BASEACCEL
X, "0.0"
*END STEP
