*Part, name=CANTILEVER
*Node
1, 0.0, 0.0
2, 2.0, 0.0
*Element, type=B21, elset=BEAM
1, 1, 2
*Nset, nset=FIX
1
*Nset, nset=TIP
2
*Beam Section, elset=BEAM, material=STEEL, section=RECT
0.20, 0.33
*Material, name=STEEL
*Elastic
2.10e11, 0.3
*Assembly
*Instance, name=CANTILEVER-1, part=CANTILEVER
0.0, 0.0
*End Instance
*End Assembly
*Step, name=Static, nlgeom=NO
*Static
*Boundary
FIX, 1, 3
*Cload
TIP, 2, -10000.0
*End Step
